<?xml version="1.0" encoding="UTF-8"?>

<!-- generated on 2025-11-27T22:54:11.816359+01:00 by Eclipse SUMO netedit 1.25.0
<neteditConfiguration xmlns:xsi="http://www.w3.org/2001/XMLSchema-instance" xsi:noNamespaceSchemaLocation="http://sumo.dlr.de/xsd/neteditConfiguration.xsd">

    <input>
        <sumo-net-file value="C:\Users\903un\OneDrive\Escritorio\RotondaVitoria\RotondaAmerica.net.xml"/>
    </input>

    <output>
        <output-file value="C:\Users\903un\OneDrive\Escritorio\RotondaVitoria\RotondaAmerica.net.xml"/>
    </output>

    <processing>
        <geometry.min-radius.fix.railways value="false"/>
        <geometry.avoid-overlap value="false"/>
        <geometry.max-grade.fix value="false"/>
        <offset.disable-normalization value="true"/>
        <lefthand value="0"/>
    </processing>

    <junctions>
        <no-turnarounds value="true"/>
        <junctions.corner-detail value="5"/>
        <junctions.limit-turn-speed value="5.50"/>
        <rectangular-lane-cut value="0"/>
    </junctions>

    <pedestrian>
        <walkingareas value="0"/>
    </pedestrian>

</neteditConfiguration>
-->

<net version="1.20" junctionCornerDetail="5" limitTurnSpeed="5.50" avoidOverlap="0" xmlns:xsi="http://www.w3.org/2001/XMLSchema-instance" xsi:noNamespaceSchemaLocation="http://sumo.dlr.de/xsd/net_file.xsd">

    <location netOffset="0.00,0.00" convBoundary="520836.83,4743115.50,526540.50,4745760.69" origBoundary="-2.744967,42.840173,-2.674197,42.873140" projParameter="+proj=utm +zone=30 +ellps=WGS84 +datum=WGS84 +units=m +no_defs"/>

    <type id="highway.busway" priority="1" numLanes="1" speed="27.78" allow="bus" oneway="1"/>
    <type id="highway.cycleway" priority="1" numLanes="1" speed="5.56" allow="bicycle" oneway="0" width="2.00"/>
    <type id="highway.footway" priority="1" numLanes="1" speed="2.78" allow="pedestrian" oneway="1" width="2.00"/>
    <type id="highway.living_street" priority="2" numLanes="1" speed="2.78" disallow="tram rail_urban rail rail_electric rail_fast ship container cable_car subway aircraft wheelchair scooter drone" oneway="0"/>
    <type id="highway.pedestrian" priority="1" numLanes="1" speed="2.78" allow="pedestrian" oneway="1" width="2.00"/>
    <type id="highway.primary" priority="12" numLanes="2" speed="27.78" disallow="tram rail_urban rail rail_electric rail_fast ship container cable_car subway aircraft wheelchair scooter drone" oneway="0"/>
    <type id="highway.residential" priority="3" numLanes="1" speed="13.89" disallow="tram rail_urban rail rail_electric rail_fast ship container cable_car subway aircraft wheelchair scooter drone" oneway="0"/>
    <type id="highway.service" priority="1" numLanes="1" speed="5.56" allow="pedestrian delivery bicycle" oneway="0"/>
    <type id="highway.steps" priority="1" numLanes="1" speed="1.39" allow="pedestrian" oneway="1" width="2.00"/>
    <type id="railway.tram" priority="17" numLanes="1" speed="13.89" allow="tram" oneway="1"/>

    <edge id=":1255547110_0" function="internal">
        <lane id=":1255547110_0_0" index="0" allow="bicycle" speed="5.56" length="5.04" width="2.00" shape="525999.37,4745304.04 525997.09,4745308.54"/>
    </edge>
    <edge id=":1255547110_1" function="internal">
        <lane id=":1255547110_1_0" index="0" allow="bicycle" speed="5.56" length="5.05" width="2.00" shape="525995.31,4745307.64 525997.59,4745303.13"/>
    </edge>
    <edge id=":1255547116_0" function="internal">
        <lane id=":1255547116_0_0" index="0" allow="bicycle" speed="4.99" length="4.57" width="2.00" shape="526056.49,4745167.37 526056.14,4745166.36 526055.45,4745165.63 526054.42,4745165.18 526053.06,4745165.02"/>
    </edge>
    <edge id=":1255547116_1" function="internal">
        <lane id=":1255547116_1_0" index="0" allow="bicycle" speed="5.56" length="4.83" width="2.00" shape="526056.49,4745167.37 526055.71,4745162.60"/>
    </edge>
    <edge id=":1255547116_2" function="internal">
        <lane id=":1255547116_2_0" index="0" allow="bicycle" speed="5.56" length="4.86" width="2.00" shape="526057.68,4745162.26 526058.47,4745167.06"/>
    </edge>
    <edge id=":1255547116_3" function="internal">
        <lane id=":1255547116_3_0" index="0" allow="bicycle" speed="5.07" length="6.22" width="2.00" shape="526057.68,4745162.26 526057.58,4745163.49 526056.77,4745164.36 526055.26,4745164.87 526053.06,4745165.02"/>
    </edge>
    <edge id=":1255547116_4" function="internal">
        <lane id=":1255547116_4_0" index="0" allow="bicycle" speed="3.70" length="2.96" width="2.00" shape="526053.09,4745163.02 526053.94,4745163.10 526054.84,4745163.19 526055.51,4745163.09 526055.71,4745162.60"/>
    </edge>
    <edge id=":1255547116_5" function="internal">
        <lane id=":1255547116_5_0" index="0" allow="bicycle" speed="5.56" length="7.41" width="2.00" shape="526053.09,4745163.02 526055.20,4745163.29 526056.81,4745164.06 526057.89,4745165.31 526058.47,4745167.06"/>
    </edge>
    <edge id=":1255547130_0" function="internal">
        <lane id=":1255547130_0_0" index="0" allow="bicycle" speed="5.56" length="13.96" width="2.00" shape="526012.01,4745160.47 526008.91,4745158.67 526006.12,4745156.74 526003.47,4745154.63 526000.79,4745152.24"/>
    </edge>
    <edge id=":1255547130_1" function="internal">
        <lane id=":1255547130_1_0" index="0" allow="bicycle" speed="4.83" length="6.08" width="2.00" shape="526012.01,4745160.47 526010.38,4745159.35 526009.58,4745158.20 526009.62,4745157.01 526010.50,4745155.79"/>
    </edge>
    <edge id=":1255547130_2" function="internal">
        <lane id=":1255547130_2_0" index="0" allow="bicycle" speed="4.72" length="4.43" width="2.00" shape="526002.14,4745150.77 526003.22,4745151.56 526004.23,4745151.89 526005.18,4745151.76 526006.07,4745151.17"/>
    </edge>
    <edge id=":1255547130_3" function="internal">
        <lane id=":1255547130_3_0" index="0" allow="bicycle" speed="5.56" length="13.54" width="2.00" shape="526002.14,4745150.77 526004.77,4745153.12 526007.31,4745155.15 526009.99,4745156.99 526013.03,4745158.75"/>
    </edge>
    <edge id=":1255547130_4" function="internal">
        <lane id=":1255547130_4_0" index="0" allow="bicycle" speed="4.06" length="3.28" width="2.00" shape="526001.57,4745154.98 526001.97,4745154.47 526001.98,4745153.84 526001.58,4745153.10 526000.79,4745152.24"/>
    </edge>
    <edge id=":1255547130_5" function="internal">
        <lane id=":1255547130_5_0" index="0" disallow="tram rail_urban rail rail_electric rail_fast ship container cable_car subway aircraft wheelchair scooter drone" speed="13.89" length="6.38" shape="526001.93,4745155.46 526003.35,4745154.39 526004.30,4745153.63 526005.20,4745152.82 526006.49,4745151.60"/>
        <lane id=":1255547130_5_1" index="1" disallow="tram rail_urban rail rail_electric rail_fast ship container cable_car subway aircraft wheelchair scooter drone" speed="13.89" length="6.38" shape="526003.84,4745158.02 526005.35,4745156.89 526006.37,4745156.08 526007.33,4745155.21 526008.70,4745153.91"/>
        <lane id=":1255547130_5_2" index="2" disallow="tram rail_urban rail rail_electric rail_fast ship container cable_car subway aircraft wheelchair scooter drone" speed="13.89" length="6.38" shape="526005.75,4745160.59 526007.36,4745159.38 526008.44,4745158.52 526009.46,4745157.61 526010.92,4745156.22"/>
    </edge>
    <edge id=":1255547130_8" function="internal">
        <lane id=":1255547130_8_0" index="0" allow="bicycle" speed="7.25" length="7.62" width="2.00" shape="526006.11,4745161.07 526008.31,4745159.61 526010.19,4745158.74 526011.77,4745158.45 526013.03,4745158.75"/>
    </edge>
    <edge id=":1257126714_0" function="internal">
        <lane id=":1257126714_0_0" index="0" allow="bicycle" speed="5.56" length="0.26" width="2.00" shape="526069.82,4745052.17 526069.74,4745052.41"/>
    </edge>
    <edge id=":1257126714_1" function="internal">
        <lane id=":1257126714_1_0" index="0" allow="bicycle" speed="5.56" length="0.18" width="2.00" shape="526067.86,4745051.71 526067.93,4745051.54"/>
    </edge>
    <edge id=":12857207264_0" function="internal">
        <lane id=":12857207264_0_0" index="0" disallow="tram rail_urban rail rail_electric rail_fast ship container cable_car subway aircraft wheelchair scooter drone" speed="13.89" length="7.96" shape="525871.04,4745374.55 525871.90,4745372.28 525872.16,4745370.59 525872.47,4745368.92 525873.47,4745366.73"/>
        <lane id=":12857207264_0_1" index="1" disallow="tram rail_urban rail rail_electric rail_fast ship container cable_car subway aircraft wheelchair scooter drone" speed="13.89" length="7.96" shape="525873.90,4745375.99 525874.73,4745373.77 525874.98,4745372.12 525875.26,4745370.49 525876.23,4745368.35"/>
        <lane id=":12857207264_0_2" index="2" disallow="tram rail_urban rail rail_electric rail_fast ship container cable_car subway aircraft wheelchair scooter drone" speed="13.89" length="7.96" shape="525876.76,4745377.42 525877.57,4745375.26 525877.79,4745373.65 525878.05,4745372.06 525878.99,4745369.97"/>
        <lane id=":12857207264_0_3" index="3" disallow="tram rail_urban rail rail_electric rail_fast ship container cable_car subway aircraft wheelchair scooter drone" speed="13.89" length="7.96" shape="525876.76,4745377.42 525877.99,4745375.53 525879.17,4745374.46 525880.39,4745373.42 525881.75,4745371.59"/>
    </edge>
    <edge id=":12857207290_0" function="internal">
        <lane id=":12857207290_0_0" index="0" disallow="tram rail_urban rail rail_electric rail_fast ship container cable_car subway aircraft wheelchair scooter drone" speed="13.89" length="0.36" shape="525853.60,4745184.82 525853.01,4745184.60"/>
        <lane id=":12857207290_0_1" index="1" disallow="tram rail_urban rail rail_electric rail_fast ship container cable_car subway aircraft wheelchair scooter drone" speed="13.89" length="0.36" shape="525854.65,4745181.80 525854.23,4745181.64"/>
        <lane id=":12857207290_0_2" index="2" disallow="tram rail_urban rail rail_electric rail_fast ship container cable_car subway aircraft wheelchair scooter drone" speed="13.89" length="0.36" shape="525855.69,4745178.78 525855.44,4745178.68"/>
        <lane id=":12857207290_0_3" index="3" disallow="tram rail_urban rail rail_electric rail_fast ship container cable_car subway aircraft wheelchair scooter drone" speed="13.89" length="0.36" shape="525856.74,4745175.75 525856.66,4745175.72"/>
    </edge>
    <edge id=":12857207292_0" function="internal">
        <lane id=":12857207292_0_0" index="0" disallow="tram rail_urban rail rail_electric rail_fast ship container cable_car subway aircraft wheelchair scooter drone" speed="13.89" length="0.35" shape="525905.36,4745305.99 525905.46,4745305.78"/>
        <lane id=":12857207292_0_1" index="1" disallow="tram rail_urban rail rail_electric rail_fast ship container cable_car subway aircraft wheelchair scooter drone" speed="13.89" length="0.35" shape="525908.19,4745307.47 525908.33,4745307.20"/>
        <lane id=":12857207292_0_2" index="2" disallow="tram rail_urban rail rail_electric rail_fast ship container cable_car subway aircraft wheelchair scooter drone" speed="13.89" length="0.35" shape="525911.03,4745308.96 525911.20,4745308.61"/>
        <lane id=":12857207292_0_3" index="3" disallow="tram rail_urban rail rail_electric rail_fast ship container cable_car subway aircraft wheelchair scooter drone" speed="13.89" length="0.35" shape="525913.86,4745310.44 525914.07,4745310.03"/>
    </edge>
    <edge id=":12857303054_0" function="internal">
        <lane id=":12857303054_0_0" index="0" disallow="tram rail_urban rail rail_electric rail_fast ship container cable_car subway aircraft wheelchair scooter drone" speed="13.89" length="0.42" shape="525845.89,4745157.22 525846.16,4745157.32"/>
        <lane id=":12857303054_0_1" index="1" disallow="tram rail_urban rail rail_electric rail_fast ship container cable_car subway aircraft wheelchair scooter drone" speed="13.89" length="0.42" shape="525844.70,4745160.19 525845.10,4745160.34"/>
        <lane id=":12857303054_0_2" index="2" disallow="tram rail_urban rail rail_electric rail_fast ship container cable_car subway aircraft wheelchair scooter drone" speed="13.89" length="0.42" shape="525843.52,4745163.16 525844.04,4745163.36"/>
    </edge>
    <edge id=":1694815702_0" function="internal">
        <lane id=":1694815702_0_0" index="0" allow="tram" speed="13.89" length="3.09" shape="526026.60,4745068.15 526026.90,4745067.28 526027.09,4745066.69 526027.25,4745066.08 526027.43,4745065.18"/>
    </edge>
    <edge id=":1694815710_0" function="internal">
        <lane id=":1694815710_0_0" index="0" allow="tram" speed="5.56" length="4.50" shape="525993.16,4745140.23 525994.24,4745139.44 525995.01,4745138.93 525995.73,4745138.37 525996.70,4745137.45"/>
    </edge>
    <edge id=":1694815712_0" function="internal">
        <lane id=":1694815712_0_0" index="0" allow="tram" speed="4.17" length="2.98" shape="525871.16,4745155.64 525873.93,4745156.74"/>
    </edge>
    <edge id=":1694815712_1" function="internal">
        <lane id=":1694815712_1_0" index="0" allow="tram" speed="4.17" length="2.99" shape="525871.16,4745155.64 525871.98,4745155.98 525872.54,4745156.23 525873.08,4745156.51 525873.85,4745156.94"/>
    </edge>
    <edge id=":1694815718_0" function="internal">
        <lane id=":1694815718_0_0" index="0" allow="tram" speed="5.56" length="22.44" shape="525954.68,4745160.33 525959.26,4745158.56 525965.15,4745156.29 525971.00,4745153.91 525975.44,4745151.84"/>
    </edge>
    <edge id=":1694815718_1" function="internal">
        <lane id=":1694815718_1_0" index="0" allow="tram" speed="4.87" length="21.52" shape="525957.00,4745162.93 525975.44,4745151.84"/>
    </edge>
    <edge id=":1694815720_0" function="internal">
        <lane id=":1694815720_0_0" index="0" allow="tram" speed="4.87" length="0.20" shape="525938.05,4745166.97 525938.23,4745166.90"/>
    </edge>
    <edge id=":1694815724_0" function="internal">
        <lane id=":1694815724_0_0" index="0" disallow="tram rail_urban rail rail_electric rail_fast ship container cable_car subway aircraft wheelchair scooter drone" speed="13.89" length="0.47" shape="525923.97,4745182.65 525924.01,4745182.65 525924.03,4745182.66 525924.06,4745182.66 525924.10,4745182.66"/>
        <lane id=":1694815724_0_1" index="1" disallow="tram rail_urban rail rail_electric rail_fast ship container cable_car subway aircraft wheelchair scooter drone" speed="13.89" length="0.47" shape="525923.54,4745185.82 525923.68,4745185.84 525923.78,4745185.85 525923.88,4745185.85 525924.02,4745185.86"/>
        <lane id=":1694815724_0_2" index="2" disallow="tram rail_urban rail rail_electric rail_fast ship container cable_car subway aircraft wheelchair scooter drone" speed="13.89" length="0.47" shape="525923.15,4745189.00 525923.38,4745189.02 525923.54,4745189.04 525923.70,4745189.05 525923.94,4745189.05"/>
    </edge>
    <edge id=":1694815727_0" function="internal">
        <lane id=":1694815727_0_0" index="0" disallow="tram rail_urban rail rail_electric rail_fast ship container cable_car subway aircraft wheelchair scooter drone" speed="13.89" length="11.33" shape="525931.41,4745224.87 525924.91,4745215.89"/>
        <lane id=":1694815727_0_1" index="1" disallow="tram rail_urban rail rail_electric rail_fast ship container cable_car subway aircraft wheelchair scooter drone" speed="13.89" length="11.33" shape="525934.03,4745223.02 525927.43,4745213.91"/>
        <lane id=":1694815727_0_2" index="2" disallow="tram rail_urban rail rail_electric rail_fast ship container cable_car subway aircraft wheelchair scooter drone" speed="13.89" length="11.33" shape="525936.64,4745221.18 525929.95,4745211.94"/>
        <lane id=":1694815727_0_3" index="3" disallow="tram rail_urban rail rail_electric rail_fast ship container cable_car subway aircraft wheelchair scooter drone" speed="13.89" length="11.33" shape="525939.26,4745219.33 525932.47,4745209.96"/>
    </edge>
    <edge id=":1694815727_4" function="internal">
        <lane id=":1694815727_4_0" index="0" allow="tram" speed="4.17" length="22.43" shape="525931.14,4745201.88 525930.67,4745206.77 525930.39,4745213.06 525930.27,4745219.37 525930.31,4745224.28"/>
    </edge>
    <edge id=":1943034508_0" function="internal">
        <lane id=":1943034508_0_0" index="0" allow="bicycle" speed="5.56" length="6.64" width="2.00" shape="526067.59,4745278.37 526065.76,4745277.65 526064.49,4745277.19 526063.20,4745276.80 526061.30,4745276.28"/>
    </edge>
    <edge id=":1943034508_1" function="internal">
        <lane id=":1943034508_1_0" index="0" allow="bicycle" speed="5.56" length="6.58" width="2.00" shape="526067.59,4745278.37 526065.90,4745277.45 526064.86,4745276.29 526064.47,4745274.90 526064.74,4745273.28"/>
    </edge>
    <edge id=":1943034508_2" function="internal">
        <lane id=":1943034508_2_0" index="0" allow="bicycle" speed="4.23" length="3.47" width="2.00" shape="526066.64,4745273.93 526066.52,4745274.72 526066.77,4745275.41 526067.37,4745276.01 526068.34,4745276.51"/>
    </edge>
    <edge id=":1943034508_3" function="internal">
        <lane id=":1943034508_3_0" index="0" allow="bicycle" speed="5.56" length="6.54" width="2.00" shape="526066.64,4745273.93 526065.85,4745275.37 526064.70,4745276.25 526063.18,4745276.55 526061.30,4745276.28"/>
    </edge>
    <edge id=":1943034508_4" function="internal">
        <lane id=":1943034508_4_0" index="0" allow="bicycle" speed="4.28" length="3.49" width="2.00" shape="526061.81,4745274.35 526062.87,4745274.52 526063.72,4745274.39 526064.34,4745273.98 526064.74,4745273.28"/>
    </edge>
    <edge id=":1943034508_5" function="internal">
        <lane id=":1943034508_5_0" index="0" allow="bicycle" speed="5.56" length="6.88" width="2.00" shape="526061.81,4745274.35 526063.78,4745274.88 526065.12,4745275.29 526066.44,4745275.76 526068.34,4745276.51"/>
    </edge>
    <edge id=":1962743078_0" function="internal">
        <lane id=":1962743078_0_0" index="0" allow="tram" speed="4.17" length="18.90" shape="525944.08,4745177.01 525941.29,4745180.34 525938.40,4745184.53 525935.78,4745188.90 525933.78,4745192.78"/>
    </edge>
    <edge id=":1962743078_1" function="internal">
        <lane id=":1962743078_1_0" index="0" disallow="tram rail_urban rail rail_electric rail_fast ship container cable_car subway aircraft wheelchair scooter drone" speed="13.89" length="11.19" shape="525934.11,4745182.56 525937.26,4745182.29 525939.39,4745181.93 525941.50,4745181.41 525944.57,4745180.63"/>
        <lane id=":1962743078_1_1" index="1" disallow="tram rail_urban rail rail_electric rail_fast ship container cable_car subway aircraft wheelchair scooter drone" speed="13.89" length="11.19" shape="525934.32,4745185.75 525937.62,4745185.47 525939.86,4745185.10 525942.08,4745184.56 525945.30,4745183.74"/>
        <lane id=":1962743078_1_2" index="2" disallow="tram rail_urban rail rail_electric rail_fast ship container cable_car subway aircraft wheelchair scooter drone" speed="13.89" length="11.19" shape="525934.52,4745188.94 525937.98,4745188.65 525940.33,4745188.27 525942.65,4745187.71 525946.03,4745186.86"/>
    </edge>
    <edge id=":1962743081_0" function="internal">
        <lane id=":1962743081_0_0" index="0" disallow="tram rail_urban rail rail_electric rail_fast ship container cable_car subway aircraft wheelchair scooter drone" speed="13.89" length="8.85" shape="525925.35,4745182.69 525927.90,4745182.75 525929.64,4745182.77 525931.38,4745182.72 525933.91,4745182.57"/>
        <lane id=":1962743081_0_1" index="1" disallow="tram rail_urban rail rail_electric rail_fast ship container cable_car subway aircraft wheelchair scooter drone" speed="13.89" length="8.85" shape="525925.27,4745185.89 525927.90,4745185.95 525929.70,4745185.97 525931.50,4745185.92 525934.12,4745185.76"/>
        <lane id=":1962743081_0_2" index="2" disallow="tram rail_urban rail rail_electric rail_fast ship container cable_car subway aircraft wheelchair scooter drone" speed="13.89" length="8.85" shape="525925.20,4745189.09 525927.91,4745189.15 525929.76,4745189.17 525931.61,4745189.11 525934.32,4745188.96"/>
    </edge>
    <edge id=":1962743081_3" function="internal">
        <lane id=":1962743081_3_0" index="0" allow="tram" speed="4.17" length="15.84" shape="525927.72,4745192.88 525928.97,4745189.21 525930.66,4745185.54 525932.69,4745182.05 525934.97,4745178.90"/>
    </edge>
    <edge id=":1962743082_0" function="internal">
        <lane id=":1962743082_0_0" index="0" disallow="tram rail_urban rail rail_electric rail_fast ship container cable_car subway aircraft wheelchair scooter drone" speed="13.89" length="12.72" shape="525924.79,4745215.73 525922.51,4745212.91 525920.84,4745211.07 525919.09,4745209.30 525916.54,4745206.71"/>
        <lane id=":1962743082_0_1" index="1" disallow="tram rail_urban rail rail_electric rail_fast ship container cable_car subway aircraft wheelchair scooter drone" speed="13.89" length="12.72" shape="525927.31,4745213.75 525924.96,4745210.86 525923.26,4745208.96 525921.46,4745207.15 525918.84,4745204.49"/>
        <lane id=":1962743082_0_2" index="2" disallow="tram rail_urban rail rail_electric rail_fast ship container cable_car subway aircraft wheelchair scooter drone" speed="13.89" length="12.72" shape="525929.82,4745211.78 525927.42,4745208.81 525925.67,4745206.86 525923.83,4745205.00 525921.15,4745202.27"/>
        <lane id=":1962743082_0_3" index="3" disallow="tram rail_urban rail rail_electric rail_fast ship container cable_car subway aircraft wheelchair scooter drone" speed="13.89" length="12.72" shape="525932.34,4745209.80 525929.88,4745206.76 525928.09,4745204.76 525926.20,4745202.84 525923.45,4745200.04"/>
    </edge>
    <edge id=":1962743082_4" function="internal">
        <lane id=":1962743082_4_0" index="0" allow="tram" speed="4.17" length="21.46" shape="525926.37,4745219.25 525926.35,4745214.49 525926.34,4745208.52 525926.43,4745202.55 525926.74,4745197.81"/>
    </edge>
    <edge id=":1989889583_0" function="internal">
        <lane id=":1989889583_0_0" index="0" allow="tram" speed="13.89" length="19.73" shape="526030.53,4745067.42 526023.83,4745085.98"/>
    </edge>
    <edge id=":1989889583_1" function="internal">
        <lane id=":1989889583_1_0" index="0" allow="tram" speed="9.03" length="18.79" shape="526027.03,4745067.48 526026.42,4745071.78 526025.73,4745076.80 526024.89,4745081.78 526023.83,4745085.98"/>
    </edge>
    <edge id=":1989889586_0" function="internal">
        <lane id=":1989889586_0_0" index="0" allow="tram" speed="9.72" length="2.81" shape="525824.14,4745140.67 525821.53,4745139.64"/>
    </edge>
    <edge id=":1989889598_0" function="internal">
        <lane id=":1989889598_0_0" index="0" allow="bicycle" speed="5.56" length="5.31" width="2.00" shape="525991.54,4745143.89 525987.60,4745140.33"/>
    </edge>
    <edge id=":1989889598_1" function="internal">
        <lane id=":1989889598_1_0" index="0" allow="bicycle" speed="5.56" length="5.29" width="2.00" shape="525988.95,4745138.85 525992.87,4745142.40"/>
    </edge>
    <edge id=":1989889598_2" function="internal">
        <lane id=":1989889598_2_0" index="0" allow="tram" speed="5.56" length="6.52" shape="525987.78,4745144.26 525993.00,4745140.35"/>
    </edge>
    <edge id=":1989889602_0" function="internal">
        <lane id=":1989889602_0_0" index="0" allow="bicycle" speed="5.56" length="4.52" width="2.00" shape="525995.07,4745147.03 525991.69,4745144.02"/>
    </edge>
    <edge id=":1989889602_1" function="internal">
        <lane id=":1989889602_1_0" index="0" allow="tram" speed="5.56" length="6.66" shape="525995.90,4745142.89 525994.35,4745144.11 525993.26,4745144.92 525992.14,4745145.68 525990.48,4745146.76"/>
    </edge>
    <edge id=":1989889602_2" function="internal">
        <lane id=":1989889602_2_0" index="0" allow="bicycle" speed="5.56" length="4.52" width="2.00" shape="525993.02,4745142.53 525996.40,4745145.54"/>
    </edge>
    <edge id=":1989889605_0" function="internal">
        <lane id=":1989889605_0_0" index="0" allow="tram" speed="9.72" length="2.77" shape="525842.94,4745144.48 525845.52,4745145.50"/>
    </edge>
    <edge id=":1989889605_1" function="internal">
        <lane id=":1989889605_1_0" index="0" allow="tram" speed="6.95" length="2.75" shape="525842.89,4745144.70 525843.69,4745144.89 525844.23,4745145.03 525844.76,4745145.21 525845.52,4745145.50"/>
    </edge>
    <edge id=":1989889611_0" function="internal">
        <lane id=":1989889611_0_0" index="0" allow="tram" speed="4.17" length="3.02" shape="525877.18,4745162.03 525876.40,4745161.58 525875.86,4745161.29 525875.30,4745161.03 525874.48,4745160.69"/>
    </edge>
    <edge id=":1989889611_1" function="internal">
        <lane id=":1989889611_1_0" index="0" allow="tram" speed="4.17" length="3.00" shape="525877.27,4745161.79 525874.48,4745160.69"/>
    </edge>
    <edge id=":1989889620_0" function="internal">
        <lane id=":1989889620_0_0" index="0" allow="tram" speed="5.56" length="2.39" shape="525957.19,4745163.03 525954.96,4745163.90"/>
    </edge>
    <edge id=":1989889620_1" function="internal">
        <lane id=":1989889620_1_0" index="0" allow="tram" speed="4.17" length="2.05" shape="525955.08,4745164.10 525956.83,4745163.03"/>
    </edge>
    <edge id=":1989889626_0" function="internal">
        <lane id=":1989889626_0_0" index="0" allow="tram" speed="4.17" length="31.30" shape="525915.10,4745192.15 525911.08,4745187.38 525904.32,4745180.90 525897.25,4745174.73 525892.26,4745170.86"/>
    </edge>
    <edge id=":1989889626_1" function="internal">
        <lane id=":1989889626_1_0" index="0" disallow="tram rail_urban rail rail_electric rail_fast ship container cable_car subway aircraft wheelchair scooter drone" speed="13.89" length="28.03" shape="525890.55,4745173.89 525917.38,4745181.99"/>
        <lane id=":1989889626_1_1" index="1" disallow="tram rail_urban rail rail_electric rail_fast ship container cable_car subway aircraft wheelchair scooter drone" speed="13.89" length="28.03" shape="525889.72,4745176.99 525916.55,4745185.08"/>
        <lane id=":1989889626_1_2" index="2" disallow="tram rail_urban rail rail_electric rail_fast ship container cable_car subway aircraft wheelchair scooter drone" speed="13.89" length="28.03" shape="525888.88,4745180.09 525915.72,4745188.17"/>
    </edge>
    <edge id=":1989889628_0" function="internal">
        <lane id=":1989889628_0_0" index="0" allow="tram" speed="4.17" length="24.29" shape="525904.11,4745174.92 525908.16,4745178.18 525913.06,4745183.13 525917.55,4745188.45 525920.32,4745192.81"/>
    </edge>
    <edge id=":1989889628_1" function="internal">
        <lane id=":1989889628_1_0" index="0" disallow="tram rail_urban rail rail_electric rail_fast ship container cable_car subway aircraft wheelchair scooter drone" speed="13.89" length="6.60" shape="525917.57,4745182.04 525919.40,4745182.43 525920.69,4745182.50 525921.99,4745182.50 525923.87,4745182.64"/>
        <lane id=":1989889628_1_1" index="1" disallow="tram rail_urban rail rail_electric rail_fast ship container cable_car subway aircraft wheelchair scooter drone" speed="13.89" length="6.60" shape="525916.74,4745185.13 525918.65,4745185.54 525919.98,4745185.63 525921.34,4745185.64 525923.29,4745185.79"/>
        <lane id=":1989889628_1_2" index="2" disallow="tram rail_urban rail rail_electric rail_fast ship container cable_car subway aircraft wheelchair scooter drone" speed="13.89" length="6.60" shape="525915.92,4745188.22 525917.89,4745188.65 525919.28,4745188.76 525920.68,4745188.78 525922.71,4745188.94"/>
    </edge>
    <edge id=":1989889655_0" function="internal">
        <lane id=":1989889655_0_0" index="0" allow="tram" speed="4.17" length="26.09" shape="525923.07,4745217.63 525921.82,4745212.28 525919.82,4745204.97 525917.54,4745197.76 525915.43,4745192.73"/>
    </edge>
    <edge id=":1989889655_1" function="internal">
        <lane id=":1989889655_1_0" index="0" disallow="tram rail_urban rail rail_electric rail_fast ship container cable_car subway aircraft wheelchair scooter drone" speed="13.89" length="13.72" shape="525919.20,4745210.00 525916.17,4745207.73 525913.94,4745206.42 525911.54,4745205.37 525908.04,4745203.89"/>
        <lane id=":1989889655_1_1" index="1" disallow="tram rail_urban rail rail_electric rail_fast ship container cable_car subway aircraft wheelchair scooter drone" speed="13.89" length="13.72" shape="525921.19,4745207.50 525918.03,4745205.11 525915.69,4745203.72 525913.19,4745202.61 525909.52,4745201.05"/>
        <lane id=":1989889655_1_2" index="2" disallow="tram rail_urban rail rail_electric rail_fast ship container cable_car subway aircraft wheelchair scooter drone" speed="13.89" length="13.72" shape="525923.19,4745205.00 525919.88,4745202.50 525917.44,4745201.02 525914.83,4745199.84 525911.00,4745198.20"/>
        <lane id=":1989889655_1_3" index="3" disallow="tram rail_urban rail rail_electric rail_fast ship container cable_car subway aircraft wheelchair scooter drone" speed="13.89" length="13.72" shape="525925.19,4745202.50 525921.74,4745199.88 525919.20,4745198.33 525916.48,4745197.08 525912.48,4745195.36"/>
    </edge>
    <edge id=":1989889660_0" function="internal">
        <lane id=":1989889660_0_0" index="0" disallow="tram rail_urban rail rail_electric rail_fast ship container cable_car subway aircraft wheelchair scooter drone" speed="13.89" length="4.01" shape="525916.40,4745206.57 525919.35,4745210.13"/>
        <lane id=":1989889660_0_1" index="1" disallow="tram rail_urban rail rail_electric rail_fast ship container cable_car subway aircraft wheelchair scooter drone" speed="13.89" length="4.01" shape="525918.71,4745204.35 525921.35,4745207.62"/>
        <lane id=":1989889660_0_2" index="2" disallow="tram rail_urban rail rail_electric rail_fast ship container cable_car subway aircraft wheelchair scooter drone" speed="13.89" length="4.01" shape="525921.01,4745202.12 525923.35,4745205.12"/>